/*--------------------------------*- C++ -*----------------------------------*
| =========                |                                                 |
| \      /  F ield         | OpenFOAM: The Open Source CFD Toolbox           |
|  \    /   O peration     | Version:  v2406                                 |
|   \  /    A nd           | Website:  www.openfoam.com                      |
|    \/     M anipulation  |                                                 |
*---------------------------------------------------------------------------*/
FoamFile
{
    format      ascii;
    class       dictionary;
    object      blockMeshDict;
}

convertToMeters 1;

vertices
(
    (-9.54 0 -11.41)
    (33.67 0 -11.41)
    (33.67 12.42 -11.41)
    (-9.54 12.42 -11.41)
    
    (-9.54 0 11.41)
    (33.67 0 11.41)
    (33.67 12.42 11.41)
    (-9.54 12.42 11.41)
);

blocks
(
    hex (0 1 2 3 4 5 6 7) (80 20 20)  
    simpleGrading 
    (
        
        (
            (0.1 0.1 0.5)
            (0.5 0.6 1)
            (0.4 0.3 2)
        )
        
        (
            (0.3 0.4 1)
            (0.3 0.4 1)
            (0.4 0.2 3)
        )
        
        (
            (0.25 0.15 0.5)
            (0.5 0.7 1)
            (0.25 0.15 2)
        )
    )

);

edges
(
);

boundary
(
    inlet
    {
        type patch;
        faces
        (
            (0 1 2 3)
            (4 5 6 7)
            (0 3 7 4)
            (1 2 6 5)
        );
    }
    ground
    {
        type wall;
        faces
        (
            (0 1 5 4)
        );
    }
);

mergePatchPairs
(
);
// ************************************************************************* //
// **************************** tensorXFV 2025 ***************************** //
// *************************** tensorcfd.com ******************************* //
