/*--------------------------------*- C++ -*----------------------------------*\
| =========                 |                                                 |
| \\      /  F ield         | OpenFOAM: The Open Source CFD Toolbox           |
|  \\    /   O peration     | Version:  v2406                                 |
|   \\  /    A nd           | Website:  www.openfoam.com                      |
|    \\/     M anipulation  |                                                 |
\*---------------------------------------------------------------------------*/
FoamFile
{
    version     2.0;
    format      ascii;
    class       dictionary;
    object      blockMeshDict;
}
// * * * * * * * * * * * * * * * * * * * * * * * * * * * * * * * * * * * * * //

scale    1;

vertices
(
    (-5.36 -0.15 -3.31)
    (2.67 -0.15 -3.31)
    (2.67 3.08 -3.31)
    (-5.36 3.08 -3.31)

    (-5.36 -0.15 4.72)
    (2.67 -0.15 4.72)
    (2.67 3.08 4.72)
    (-5.36 3.08 4.72)

);

blocks
(
    hex (0 1 2 3 4 5 6 7) (70 50 70) simpleGrading (1 1 1)
);

defaultPatch
{
    name    walls;
    type    wall;
}

boundary
();


// ***************************************************************** //
// *********************** tensorHVAC-2025 ************************* //
// ************************ pttensor.com *************************** //